
&MESH ID='1', IJK=60,52,104, XB=326.1,332.1,-26.3,-21.1,-0.1,10.3/
&MESH ID='2', IJK=101,56,52, XB=326.1,346.3,-37.5,-26.3,-0.1,10.3/
&MESH ID='3', IJK=71,26,52, XB=332.1,346.3,-26.3,-21.1,-0.1,10.3/
&MESH ID='4', IJK=101,60,52, XB=326.1,346.3,-49.5,-37.5,-0.1,10.3/
&MESH ID='5', IJK=101,60,52, XB=326.1,346.3,-61.5,-49.5,-0.1,10.3/
&MESH ID='6', IJK=84,101,26, XB=346.3,379.9,-61.5,-21.1,-0.1,10.3/
&MESH ID='7', IJK=69,101,26, XB=379.9,407.5,-61.5,-21.1,-0.1,10.3/
&MESH ID='8', IJK=16,12,8, XB=2.2,10.2,2.2,8.2,2.2,6.2/

&CTRL ID='invert', FUNCTION_TYPE='ALL', LATCH=.FALSE., INITIAL_STATE=.TRUE., INPUT_ID='TIMER->OUT'/
&DEVC ID='25_gp_2.45', QUANTITY='TEMPERATURE', XYZ=2.45,2.45,2.45/
&DEVC ID='25_p2_2.45', QUANTITY='TEMPERATURE', XYZ=2.95,2.45,2.45/
&DEVC ID='25_p3_2.45', QUANTITY='TEMPERATURE', XYZ=2.95,2.95,2.45/
&DEVC ID='25_p4_2.45', QUANTITY='TEMPERATURE', XYZ=2.45,2.95,2.45/
&DEVC ID='25_gp_2.95', QUANTITY='TEMPERATURE', XYZ=2.45,2.45,2.95/
&DEVC ID='25_p2_2.95', QUANTITY='TEMPERATURE', XYZ=2.95,2.45,2.95/
&DEVC ID='25_p3_2.95', QUANTITY='TEMPERATURE', XYZ=2.95,2.95,2.95/
&DEVC ID='25_p4_2.95', QUANTITY='TEMPERATURE', XYZ=2.45,2.95,2.95/
&DEVC ID='TIMER->OUT', QUANTITY='TIME', XYZ=326.1,-26.3,-0.1, SETPOINT=60.0/

&TAIL /
