
&MESH ID='1', IJK=60,52,104, XB=326.1,332.1,-26.3,-21.1,-0.1,10.3/
&MESH ID='2', IJK=101,56,52, XB=326.1,346.3,-37.5,-26.3,-0.1,10.3/
&MESH ID='3', IJK=71,26,52, XB=332.1,346.3,-26.3,-21.1,-0.1,10.3/
&MESH ID='4', IJK=101,60,52, XB=326.1,346.3,-49.5,-37.5,-0.1,10.3/
&MESH ID='5', IJK=101,60,52, XB=326.1,346.3,-61.5,-49.5,-0.1,10.3/
&MESH ID='6', IJK=84,101,26, XB=346.3,379.9,-61.5,-21.1,-0.1,10.3/
&MESH ID='7', IJK=69,101,26, XB=379.9,407.5,-61.5,-21.1,-0.1,10.3/


&CTRL ID='invert', FUNCTION_TYPE='ALL', LATCH=.FALSE., INITIAL_STATE=.TRUE., INPUT_ID='TIMER->OUT'/
&DEVC ID='1', QUANTITY='TEMPERATURE', XYZ=326.2,-41.1,0.0/
&DEVC ID='2', QUANTITY='TEMPERATURE', XYZ=326.2,-41.1,6.11/
&DEVC ID='3', QUANTITY='TEMPERATURE', XYZ=326.2,-41.1,8.83/
&DEVC ID='4', QUANTITY='TEMPERATURE', XYZ=326.2,-39.1,7.47/
&DEVC ID='5', QUANTITY='TEMPERATURE', XYZ=326.2,-39.1,8.83/
&DEVC ID='6', QUANTITY='TEMPERATURE', XYZ=326.2,-37.1,6.11/
&DEVC ID='7', QUANTITY='TEMPERATURE', XYZ=326.2,-37.1,8.83/
&DEVC ID='8', QUANTITY='TEMPERATURE', XYZ=326.2,-35.1,7.47/
&DEVC ID='9', QUANTITY='TEMPERATURE', XYZ=326.2,-35.1,8.83/
&DEVC ID='10', QUANTITY='TEMPERATURE', XYZ=326.2,-33.1,6.11/
&DEVC ID='11', QUANTITY='TEMPERATURE', XYZ=326.2,-33.1,8.83/
&DEVC ID='12', QUANTITY='TEMPERATURE', XYZ=326.2,-31.1,7.47/
&DEVC ID='13', QUANTITY='TEMPERATURE', XYZ=326.2,-31.1,8.83/
&DEVC ID='14', QUANTITY='TEMPERATURE', XYZ=326.2,-29.1,6.11/
&DEVC ID='15', QUANTITY='TEMPERATURE', XYZ=326.2,-29.1,8.83/
&DEVC ID='16', QUANTITY='TEMPERATURE', XYZ=326.2,-27.1,7.47/
&DEVC ID='17', QUANTITY='TEMPERATURE', XYZ=326.2,-27.1,8.83/
&DEVC ID='18', QUANTITY='TEMPERATURE', XYZ=326.2,-25.1,6.11/
&DEVC ID='19', QUANTITY='TEMPERATURE', XYZ=326.2,-25.1,8.83/
&DEVC ID='20', QUANTITY='TEMPERATURE', XYZ=326.2,-23.1,7.47/
&DEVC ID='21', QUANTITY='TEMPERATURE', XYZ=326.2,-23.1,8.83/
&DEVC ID='22', QUANTITY='TEMPERATURE', XYZ=326.2,-21.1,0.0/
&DEVC ID='23', QUANTITY='TEMPERATURE', XYZ=326.2,-21.1,6.11/
&DEVC ID='24', QUANTITY='TEMPERATURE', XYZ=326.2,-21.1,8.83/
&DEVC ID='Line_1 mid', QUANTITY='TEMPERATURE', XYZ=326.2,-41.1,3.06/
&DEVC ID='Line_1 extra_10', QUANTITY='TEMPERATURE', XYZ=326.2,-41.1,1.02/
&DEVC ID='Line_1 extra_20', QUANTITY='TEMPERATURE', XYZ=326.2,-41.1,4.08/
&DEVC ID='Line_1 extra_11', QUANTITY='TEMPERATURE', XYZ=326.2,-41.1,2.04/
&DEVC ID='Line_1 extra_21', QUANTITY='TEMPERATURE', XYZ=326.2,-41.1,5.09/
&DEVC ID='Line_2 mid', QUANTITY='TEMPERATURE', XYZ=326.2,-41.1,7.47/
&DEVC ID='Line_3 mid', QUANTITY='TEMPERATURE', XYZ=326.2,-39.1,6.11/
&DEVC ID='Line_3 extra_10', QUANTITY='TEMPERATURE', XYZ=326.2,-40.1,6.11/
&DEVC ID='Line_3 extra_20', QUANTITY='TEMPERATURE', XYZ=326.2,-38.1,6.11/
&DEVC ID='Line_4 mid', QUANTITY='TEMPERATURE', XYZ=326.2,-40.1,8.83/
&DEVC ID='Line_5 mid', QUANTITY='TEMPERATURE', XYZ=326.2,-38.1,8.83/
&DEVC ID='Line_6 mid', QUANTITY='TEMPERATURE', XYZ=326.2,-40.1,8.15/
&DEVC ID='Line_7 mid', QUANTITY='TEMPERATURE', XYZ=326.2,-38.1,6.79/
&DEVC ID='Line_8 mid', QUANTITY='TEMPERATURE', XYZ=326.2,-39.1,8.15/
&DEVC ID='Line_9 mid', QUANTITY='TEMPERATURE', XYZ=326.2,-38.1,8.15/
&DEVC ID='Line_10 mid', QUANTITY='TEMPERATURE', XYZ=326.2,-37.1,7.47/
&DEVC ID='Line_11 mid', QUANTITY='TEMPERATURE', XYZ=326.2,-35.1,6.11/
&DEVC ID='Line_11 extra_10', QUANTITY='TEMPERATURE', XYZ=326.2,-36.1,6.11/
&DEVC ID='Line_11 extra_20', QUANTITY='TEMPERATURE', XYZ=326.2,-34.1,6.11/
&DEVC ID='Line_12 mid', QUANTITY='TEMPERATURE', XYZ=326.2,-36.1,8.83/
&DEVC ID='Line_13 mid', QUANTITY='TEMPERATURE', XYZ=326.2,-34.1,8.83/
&DEVC ID='Line_14 mid', QUANTITY='TEMPERATURE', XYZ=326.2,-36.1,8.15/
&DEVC ID='Line_15 mid', QUANTITY='TEMPERATURE', XYZ=326.2,-34.1,6.79/
&DEVC ID='Line_16 mid', QUANTITY='TEMPERATURE', XYZ=326.2,-35.1,8.15/
&DEVC ID='Line_17 mid', QUANTITY='TEMPERATURE', XYZ=326.2,-34.1,8.15/
&DEVC ID='Line_18 mid', QUANTITY='TEMPERATURE', XYZ=326.2,-33.1,7.47/
&DEVC ID='Line_19 mid', QUANTITY='TEMPERATURE', XYZ=326.2,-31.1,6.11/
&DEVC ID='Line_19 extra_10', QUANTITY='TEMPERATURE', XYZ=326.2,-32.1,6.11/
&DEVC ID='Line_19 extra_20', QUANTITY='TEMPERATURE', XYZ=326.2,-30.1,6.11/
&DEVC ID='Line_20 mid', QUANTITY='TEMPERATURE', XYZ=326.2,-32.1,8.83/
&DEVC ID='Line_21 mid', QUANTITY='TEMPERATURE', XYZ=326.2,-30.1,8.83/
&DEVC ID='Line_22 mid', QUANTITY='TEMPERATURE', XYZ=326.2,-32.1,8.15/
&DEVC ID='Line_23 mid', QUANTITY='TEMPERATURE', XYZ=326.2,-30.1,6.79/
&DEVC ID='Line_24 mid', QUANTITY='TEMPERATURE', XYZ=326.2,-31.1,8.15/
&DEVC ID='Line_25 mid', QUANTITY='TEMPERATURE', XYZ=326.2,-30.1,8.15/
&DEVC ID='Line_26 mid', QUANTITY='TEMPERATURE', XYZ=326.2,-32.1,6.79/
&DEVC ID='Line_27 mid', QUANTITY='TEMPERATURE', XYZ=326.2,-29.1,7.47/
&DEVC ID='Line_28 mid', QUANTITY='TEMPERATURE', XYZ=326.2,-28.1,6.79/
&DEVC ID='Line_29 mid', QUANTITY='TEMPERATURE', XYZ=326.2,-26.1,8.15/
&DEVC ID='Line_30 mid', QUANTITY='TEMPERATURE', XYZ=326.2,-28.1,8.15/
&DEVC ID='Line_31 mid', QUANTITY='TEMPERATURE', XYZ=326.2,-27.1,8.15/
&DEVC ID='Line_32 mid', QUANTITY='TEMPERATURE', XYZ=326.2,-28.1,8.83/
&DEVC ID='Line_33 mid', QUANTITY='TEMPERATURE', XYZ=326.2,-26.1,8.83/
&DEVC ID='Line_34 mid', QUANTITY='TEMPERATURE', XYZ=326.2,-25.1,7.47/
&DEVC ID='Line_35 mid', QUANTITY='TEMPERATURE', XYZ=326.2,-27.1,6.11/
&DEVC ID='Line_35 extra_10', QUANTITY='TEMPERATURE', XYZ=326.2,-28.1,6.11/
&DEVC ID='Line_35 extra_20', QUANTITY='TEMPERATURE', XYZ=326.2,-26.1,6.11/
&DEVC ID='Line_36 mid', QUANTITY='TEMPERATURE', XYZ=326.2,-23.1,6.11/
&DEVC ID='Line_36 extra_10', QUANTITY='TEMPERATURE', XYZ=326.2,-24.1,6.11/
&DEVC ID='Line_36 extra_20', QUANTITY='TEMPERATURE', XYZ=326.2,-22.1,6.11/
&DEVC ID='Line_37 mid', QUANTITY='TEMPERATURE', XYZ=326.2,-24.1,8.83/
&DEVC ID='Line_38 mid', QUANTITY='TEMPERATURE', XYZ=326.2,-22.1,8.83/
&DEVC ID='Line_39 mid', QUANTITY='TEMPERATURE', XYZ=326.2,-24.1,6.79/
&DEVC ID='Line_40 mid', QUANTITY='TEMPERATURE', XYZ=326.2,-22.1,8.15/
&DEVC ID='Line_41 mid', QUANTITY='TEMPERATURE', XYZ=326.2,-23.1,8.15/
&DEVC ID='Line_42 mid', QUANTITY='TEMPERATURE', XYZ=326.2,-24.1,8.15/
&DEVC ID='Line_43 mid', QUANTITY='TEMPERATURE', XYZ=326.2,-21.1,7.47/
&DEVC ID='Line_44 mid', QUANTITY='TEMPERATURE', XYZ=326.2,-21.1,3.06/
&DEVC ID='Line_44 extra_10', QUANTITY='TEMPERATURE', XYZ=326.2,-21.1,1.02/
&DEVC ID='Line_44 extra_20', QUANTITY='TEMPERATURE', XYZ=326.2,-21.1,4.08/
&DEVC ID='Line_44 extra_11', QUANTITY='TEMPERATURE', XYZ=326.2,-21.1,2.04/
&DEVC ID='Line_44 extra_21', QUANTITY='TEMPERATURE', XYZ=326.2,-21.1,5.09/
&DEVC ID='TIMER->OUT', QUANTITY='TIME', XYZ=326.1,-26.3,-0.1, SETPOINT=60.0/


&TAIL /
