
&MESH ID='1', IJK=60,52,104, XB=326.1,332.1,-26.3,-21.1,-0.1,10.3/
&MESH ID='2', IJK=101,56,52, XB=326.1,346.3,-37.5,-26.3,-0.1,10.3/
&MESH ID='3', IJK=71,26,52, XB=332.1,346.3,-26.3,-21.1,-0.1,10.3/
&MESH ID='4', IJK=101,60,52, XB=326.1,346.3,-49.5,-37.5,-0.1,10.3/
&MESH ID='5', IJK=101,60,52, XB=326.1,346.3,-61.5,-49.5,-0.1,10.3/
&MESH ID='6', IJK=84,101,26, XB=346.3,379.9,-61.5,-21.1,-0.1,10.3/
&MESH ID='7', IJK=69,101,26, XB=379.9,407.5,-61.5,-21.1,-0.1,10.3/


&CTRL ID='invert', FUNCTION_TYPE='ALL', LATCH=.FALSE., INITIAL_STATE=.TRUE., INPUT_ID='TIMER->OUT'/
&DEVC ID='1', QUANTITY='TEMPERATURE', XYZ=326.2,-41.1,0.0/
&DEVC ID='2', QUANTITY='TEMPERATURE', XYZ=326.2,-41.1,6.11/
&DEVC ID='3', QUANTITY='TEMPERATURE', XYZ=326.2,-41.1,8.83/
&DEVC ID='4', QUANTITY='TEMPERATURE', XYZ=326.2,-39.1,7.47/
&DEVC ID='5', QUANTITY='TEMPERATURE', XYZ=326.2,-39.1,8.83/
&DEVC ID='6', QUANTITY='TEMPERATURE', XYZ=326.2,-37.1,6.11/
&DEVC ID='7', QUANTITY='TEMPERATURE', XYZ=326.2,-37.1,8.83/
&DEVC ID='8', QUANTITY='TEMPERATURE', XYZ=326.2,-35.1,7.47/
&DEVC ID='9', QUANTITY='TEMPERATURE', XYZ=326.2,-35.1,8.83/
&DEVC ID='10', QUANTITY='TEMPERATURE', XYZ=326.2,-33.1,6.11/
&DEVC ID='11', QUANTITY='TEMPERATURE', XYZ=326.2,-33.1,8.83/
&DEVC ID='12', QUANTITY='TEMPERATURE', XYZ=326.2,-31.1,7.47/
&DEVC ID='13', QUANTITY='TEMPERATURE', XYZ=326.2,-31.1,8.83/
&DEVC ID='14', QUANTITY='TEMPERATURE', XYZ=326.2,-29.1,6.11/
&DEVC ID='15', QUANTITY='TEMPERATURE', XYZ=326.2,-29.1,8.83/
&DEVC ID='16', QUANTITY='TEMPERATURE', XYZ=326.2,-27.1,7.47/
&DEVC ID='17', QUANTITY='TEMPERATURE', XYZ=326.2,-27.1,8.83/
&DEVC ID='18', QUANTITY='TEMPERATURE', XYZ=326.2,-25.1,6.11/
&DEVC ID='19', QUANTITY='TEMPERATURE', XYZ=326.2,-25.1,8.83/
&DEVC ID='20', QUANTITY='TEMPERATURE', XYZ=326.2,-23.1,7.47/
&DEVC ID='21', QUANTITY='TEMPERATURE', XYZ=326.2,-23.1,8.83/
&DEVC ID='22', QUANTITY='TEMPERATURE', XYZ=326.2,-21.1,0.0/
&DEVC ID='23', QUANTITY='TEMPERATURE', XYZ=326.2,-21.1,6.11/
&DEVC ID='24', QUANTITY='TEMPERATURE', XYZ=326.2,-21.1,8.83/
&DEVC ID='Line_1 mid', QUANTITY='TEMPERATURE', XYZ=326.2,-41.1,3.06/
&DEVC ID='Line_1 extra_10', QUANTITY='TEMPERATURE', XYZ=326.2,-41.1,0.2/
&DEVC ID='Line_1 extra_20', QUANTITY='TEMPERATURE', XYZ=326.2,-41.1,3.26/
&DEVC ID='Line_1 extra_11', QUANTITY='TEMPERATURE', XYZ=326.2,-41.1,0.41/
&DEVC ID='Line_1 extra_21', QUANTITY='TEMPERATURE', XYZ=326.2,-41.1,3.47/
&DEVC ID='Line_1 extra_12', QUANTITY='TEMPERATURE', XYZ=326.2,-41.1,0.61/
&DEVC ID='Line_1 extra_22', QUANTITY='TEMPERATURE', XYZ=326.2,-41.1,3.67/
&DEVC ID='Line_1 extra_13', QUANTITY='TEMPERATURE', XYZ=326.2,-41.1,0.82/
&DEVC ID='Line_1 extra_23', QUANTITY='TEMPERATURE', XYZ=326.2,-41.1,3.87/
&DEVC ID='Line_1 extra_14', QUANTITY='TEMPERATURE', XYZ=326.2,-41.1,1.02/
&DEVC ID='Line_1 extra_24', QUANTITY='TEMPERATURE', XYZ=326.2,-41.1,4.08/
&DEVC ID='Line_1 extra_15', QUANTITY='TEMPERATURE', XYZ=326.2,-41.1,1.22/
&DEVC ID='Line_1 extra_25', QUANTITY='TEMPERATURE', XYZ=326.2,-41.1,4.28/
&DEVC ID='Line_1 extra_16', QUANTITY='TEMPERATURE', XYZ=326.2,-41.1,1.43/
&DEVC ID='Line_1 extra_26', QUANTITY='TEMPERATURE', XYZ=326.2,-41.1,4.48/
&DEVC ID='Line_1 extra_17', QUANTITY='TEMPERATURE', XYZ=326.2,-41.1,1.63/
&DEVC ID='Line_1 extra_27', QUANTITY='TEMPERATURE', XYZ=326.2,-41.1,4.69/
&DEVC ID='Line_1 extra_18', QUANTITY='TEMPERATURE', XYZ=326.2,-41.1,1.84/
&DEVC ID='Line_1 extra_28', QUANTITY='TEMPERATURE', XYZ=326.2,-41.1,4.89/
&DEVC ID='Line_1 extra_19', QUANTITY='TEMPERATURE', XYZ=326.2,-41.1,2.04/
&DEVC ID='Line_1 extra_29', QUANTITY='TEMPERATURE', XYZ=326.2,-41.1,5.09/
&DEVC ID='Line_1 extra_110', QUANTITY='TEMPERATURE', XYZ=326.2,-41.1,2.24/
&DEVC ID='Line_1 extra_210', QUANTITY='TEMPERATURE', XYZ=326.2,-41.1,5.3/
&DEVC ID='Line_1 extra_111', QUANTITY='TEMPERATURE', XYZ=326.2,-41.1,2.45/
&DEVC ID='Line_1 extra_211', QUANTITY='TEMPERATURE', XYZ=326.2,-41.1,5.5/
&DEVC ID='Line_1 extra_112', QUANTITY='TEMPERATURE', XYZ=326.2,-41.1,2.65/
&DEVC ID='Line_1 extra_212', QUANTITY='TEMPERATURE', XYZ=326.2,-41.1,5.7/
&DEVC ID='Line_1 extra_113', QUANTITY='TEMPERATURE', XYZ=326.2,-41.1,2.86/
&DEVC ID='Line_1 extra_213', QUANTITY='TEMPERATURE', XYZ=326.2,-41.1,5.91/
&DEVC ID='TIMER->OUT', QUANTITY='TIME', XYZ=326.1,-26.3,-0.1, SETPOINT=60.0/


&TAIL /
