201910_Siviplast_1B_c.fds
Generated by PyroSim - Version 2019.1.0515
7-nov-2019 11.24.54

&HEAD CHID='201910_Siviplast_1B_c'/
&TIME T_END=1260.0/
&DUMP RENDER_FILE='201910_Siviplast_1B_c.ge1', COLUMN_DUMP_LIMIT=.TRUE., DT_PL3D=60.0, DT_RESTART=300.0, DT_SL3D=0.25, WRITE_XYZ=.TRUE., PLOT3D_QUANTITY(1:3)='INTEGRATED INTENSITY','TEMPERATURE','VISIBILITY'/

&MESH ID='1', IJK=60,52,104, XB=326.1,332.1,-26.3,-21.1,-0.1,10.3/
&MESH ID='2', IJK=101,56,52, XB=326.1,346.3,-37.5,-26.3,-0.1,10.3/
&MESH ID='3', IJK=71,26,52, XB=332.1,346.3,-26.3,-21.1,-0.1,10.3/
&MESH ID='4', IJK=101,60,52, XB=326.1,346.3,-49.5,-37.5,-0.1,10.3/
&MESH ID='5', IJK=101,60,52, XB=326.1,346.3,-61.5,-49.5,-0.1,10.3/
&MESH ID='6', IJK=84,101,26, XB=346.3,379.9,-61.5,-21.1,-0.1,10.3/
&MESH ID='7', IJK=69,101,26, XB=379.9,407.5,-61.5,-21.1,-0.1,10.3/


&REAC ID='polistirene',
      FUEL='REAC_FUEL',
      FORMULA='C8H8',
      AUTO_IGNITION_TEMPERATURE=0.0,
      SOOT_H_FRACTION=0.0,
      CO_YIELD=0.06,
      SOOT_YIELD=0.16/

&CTRL ID='invert', FUNCTION_TYPE='ALL', LATCH=.FALSE., INITIAL_STATE=.TRUE., INPUT_ID='TIMER->OUT'/
&DEVC ID='1', QUANTITY='TEMPERATURE', XYZ=326.2,-41.1,0.0/
&DEVC ID='2', QUANTITY='TEMPERATURE', XYZ=326.2,-41.1,6.11/
&DEVC ID='3', QUANTITY='TEMPERATURE', XYZ=326.2,-41.1,8.83/
&DEVC ID='4', QUANTITY='TEMPERATURE', XYZ=326.2,-39.1,7.47/
&DEVC ID='5', QUANTITY='TEMPERATURE', XYZ=326.2,-39.1,8.83/
&DEVC ID='6', QUANTITY='TEMPERATURE', XYZ=326.2,-37.1,6.11/
&DEVC ID='7', QUANTITY='TEMPERATURE', XYZ=326.2,-37.1,8.83/
&DEVC ID='8', QUANTITY='TEMPERATURE', XYZ=326.2,-35.1,7.47/
&DEVC ID='9', QUANTITY='TEMPERATURE', XYZ=326.2,-35.1,8.83/
&DEVC ID='10', QUANTITY='TEMPERATURE', XYZ=326.2,-33.1,6.11/
&DEVC ID='11', QUANTITY='TEMPERATURE', XYZ=326.2,-33.1,8.83/
&DEVC ID='12', QUANTITY='TEMPERATURE', XYZ=326.2,-31.1,7.47/
&DEVC ID='13', QUANTITY='TEMPERATURE', XYZ=326.2,-31.1,8.83/
&DEVC ID='14', QUANTITY='TEMPERATURE', XYZ=326.2,-29.1,6.11/
&DEVC ID='15', QUANTITY='TEMPERATURE', XYZ=326.2,-29.1,8.83/
&DEVC ID='16', QUANTITY='TEMPERATURE', XYZ=326.2,-27.1,7.47/
&DEVC ID='17', QUANTITY='TEMPERATURE', XYZ=326.2,-27.1,8.83/
&DEVC ID='18', QUANTITY='TEMPERATURE', XYZ=326.2,-25.1,6.11/
&DEVC ID='19', QUANTITY='TEMPERATURE', XYZ=326.2,-25.1,8.83/
&DEVC ID='20', QUANTITY='TEMPERATURE', XYZ=326.2,-23.1,7.47/
&DEVC ID='21', QUANTITY='TEMPERATURE', XYZ=326.2,-23.1,8.83/
&DEVC ID='22', QUANTITY='TEMPERATURE', XYZ=326.2,-21.1,0.0/
&DEVC ID='23', QUANTITY='TEMPERATURE', XYZ=326.2,-21.1,6.11/
&DEVC ID='24', QUANTITY='TEMPERATURE', XYZ=326.2,-21.1,8.83/
&DEVC ID='Line_1 mid', QUANTITY='TEMPERATURE', XYZ=326.2,-41.1,3.06/
&DEVC ID='Line_1 extra_10', QUANTITY='TEMPERATURE', XYZ=326.2,-41.1,0.2/
&DEVC ID='Line_1 extra_20', QUANTITY='TEMPERATURE', XYZ=326.2,-41.1,3.26/
&DEVC ID='Line_1 extra_11', QUANTITY='TEMPERATURE', XYZ=326.2,-41.1,0.41/
&DEVC ID='Line_1 extra_21', QUANTITY='TEMPERATURE', XYZ=326.2,-41.1,3.47/
&DEVC ID='Line_1 extra_12', QUANTITY='TEMPERATURE', XYZ=326.2,-41.1,0.61/
&DEVC ID='Line_1 extra_22', QUANTITY='TEMPERATURE', XYZ=326.2,-41.1,3.67/
&DEVC ID='Line_1 extra_13', QUANTITY='TEMPERATURE', XYZ=326.2,-41.1,0.82/
&DEVC ID='Line_1 extra_23', QUANTITY='TEMPERATURE', XYZ=326.2,-41.1,3.87/
&DEVC ID='Line_1 extra_14', QUANTITY='TEMPERATURE', XYZ=326.2,-41.1,1.02/
&DEVC ID='Line_1 extra_24', QUANTITY='TEMPERATURE', XYZ=326.2,-41.1,4.08/
&DEVC ID='Line_1 extra_15', QUANTITY='TEMPERATURE', XYZ=326.2,-41.1,1.22/
&DEVC ID='Line_1 extra_25', QUANTITY='TEMPERATURE', XYZ=326.2,-41.1,4.28/
&DEVC ID='Line_1 extra_16', QUANTITY='TEMPERATURE', XYZ=326.2,-41.1,1.43/
&DEVC ID='Line_1 extra_26', QUANTITY='TEMPERATURE', XYZ=326.2,-41.1,4.48/
&DEVC ID='Line_1 extra_17', QUANTITY='TEMPERATURE', XYZ=326.2,-41.1,1.63/
&DEVC ID='Line_1 extra_27', QUANTITY='TEMPERATURE', XYZ=326.2,-41.1,4.69/
&DEVC ID='Line_1 extra_18', QUANTITY='TEMPERATURE', XYZ=326.2,-41.1,1.84/
&DEVC ID='Line_1 extra_28', QUANTITY='TEMPERATURE', XYZ=326.2,-41.1,4.89/
&DEVC ID='Line_1 extra_19', QUANTITY='TEMPERATURE', XYZ=326.2,-41.1,2.04/
&DEVC ID='Line_1 extra_29', QUANTITY='TEMPERATURE', XYZ=326.2,-41.1,5.09/
&DEVC ID='Line_1 extra_110', QUANTITY='TEMPERATURE', XYZ=326.2,-41.1,2.24/
&DEVC ID='Line_1 extra_210', QUANTITY='TEMPERATURE', XYZ=326.2,-41.1,5.3/
&DEVC ID='Line_1 extra_111', QUANTITY='TEMPERATURE', XYZ=326.2,-41.1,2.45/
&DEVC ID='Line_1 extra_211', QUANTITY='TEMPERATURE', XYZ=326.2,-41.1,5.5/
&DEVC ID='Line_1 extra_112', QUANTITY='TEMPERATURE', XYZ=326.2,-41.1,2.65/
&DEVC ID='Line_1 extra_212', QUANTITY='TEMPERATURE', XYZ=326.2,-41.1,5.7/
&DEVC ID='Line_1 extra_113', QUANTITY='TEMPERATURE', XYZ=326.2,-41.1,2.86/
&DEVC ID='Line_1 extra_213', QUANTITY='TEMPERATURE', XYZ=326.2,-41.1,5.91/
&DEVC ID='TIMER->OUT', QUANTITY='TIME', XYZ=326.1,-26.3,-0.1, SETPOINT=60.0/

&MATL ID='STEEL',
      FYI='Drysdale, Intro to Fire Dynamics - ATF NIST Multi-Floor Validation',
      SPECIFIC_HEAT=0.46,
      CONDUCTIVITY=45.8,
      DENSITY=7850.0,
      EMISSIVITY=0.95/
&MATL ID='INSULATION',
      FYI='Isolatek BLAZE-SHIELD DC/F - WTC FDS5 Validation',
      SPECIFIC_HEAT_RAMP='INSULATION_SPECIFIC_HEAT_RAMP',
      CONDUCTIVITY_RAMP='INSULATION_CONDUCTIVITY_RAMP',
      DENSITY=208.0/
&RAMP ID='INSULATION_CONDUCTIVITY_RAMP', T=20.0, F=0.05/
&RAMP ID='INSULATION_CONDUCTIVITY_RAMP', T=377.0, F=0.1/
&RAMP ID='INSULATION_CONDUCTIVITY_RAMP', T=677.0, F=0.2/
&RAMP ID='INSULATION_SPECIFIC_HEAT_RAMP', T=20.0, F=0.8/
&RAMP ID='INSULATION_SPECIFIC_HEAT_RAMP', T=677.0, F=2.0/
&MATL ID='CONCRETE',
      FYI='NBSIR 88-3752 - ATF NIST Multi-Floor Validation',
      SPECIFIC_HEAT=1.04,
      CONDUCTIVITY=1.8,
      DENSITY=2280.0/
&MATL ID='GLASS',
      FYI='SFPE Handbook of Fire Protection Engineering, Appendix B, Table B.7',
      SPECIFIC_HEAT=0.84,
      CONDUCTIVITY=0.78,
      DENSITY=2700.0/

&SURF ID='parete_metallica',
      COLOR='GRAY 60',
      DEFAULT=.TRUE.,
      BACKING='VOID',
      MATL_ID(1,1)='STEEL',
      MATL_ID(2,1)='INSULATION',
      MATL_ID(3,1)='STEEL',
      MATL_MASS_FRACTION(1,1)=1.0,
      MATL_MASS_FRACTION(2,1)=1.0,
      MATL_MASS_FRACTION(3,1)=1.0,
      THICKNESS(1:3)=3.0E-3,0.15,3.0E-3/
&SURF ID='fire1',
      COLOR='RED',
      HRRPUA=1000.0,
      RAMP_Q='fire1_RAMP_Q',
      TMP_FRONT=300.0/
&RAMP ID='fire1_RAMP_Q', T=0.0, F=0.0/
&RAMP ID='fire1_RAMP_Q', T=5.0, F=4.8E-3/
&RAMP ID='fire1_RAMP_Q', T=10.0, F=0.019/
&RAMP ID='fire1_RAMP_Q', T=15.0, F=0.0428/
&RAMP ID='fire1_RAMP_Q', T=20.0, F=0.076/
&RAMP ID='fire1_RAMP_Q', T=25.0, F=0.1188/
&RAMP ID='fire1_RAMP_Q', T=30.0, F=0.171/
&RAMP ID='fire1_RAMP_Q', T=35.0, F=0.2328/
&RAMP ID='fire1_RAMP_Q', T=40.0, F=0.304/
&RAMP ID='fire1_RAMP_Q', T=45.0, F=0.3848/
&RAMP ID='fire1_RAMP_Q', T=50.0, F=0.475/
&RAMP ID='fire1_RAMP_Q', T=55.0, F=0.5748/
&RAMP ID='fire1_RAMP_Q', T=60.0, F=0.684/
&RAMP ID='fire1_RAMP_Q', T=65.0, F=0.8028/
&RAMP ID='fire1_RAMP_Q', T=70.0, F=0.931/
&RAMP ID='fire1_RAMP_Q', T=75.0, F=1.0688/
&RAMP ID='fire1_RAMP_Q', T=80.0, F=1.216/
&RAMP ID='fire1_RAMP_Q', T=85.0, F=1.3728/
&RAMP ID='fire1_RAMP_Q', T=90.0, F=1.3728/
&RAMP ID='fire1_RAMP_Q', T=95.0, F=1.3728/
&RAMP ID='fire1_RAMP_Q', T=100.0, F=1.3728/
&RAMP ID='fire1_RAMP_Q', T=105.0, F=1.3728/
&RAMP ID='fire1_RAMP_Q', T=110.0, F=1.3728/
&RAMP ID='fire1_RAMP_Q', T=115.0, F=1.3728/
&RAMP ID='fire1_RAMP_Q', T=120.0, F=1.3728/
&RAMP ID='fire1_RAMP_Q', T=125.0, F=1.3728/
&RAMP ID='fire1_RAMP_Q', T=130.0, F=1.3728/
&RAMP ID='fire1_RAMP_Q', T=135.0, F=1.3728/
&RAMP ID='fire1_RAMP_Q', T=140.0, F=1.3728/
&RAMP ID='fire1_RAMP_Q', T=145.0, F=1.3728/
&RAMP ID='fire1_RAMP_Q', T=150.0, F=1.3728/
&RAMP ID='fire1_RAMP_Q', T=155.0, F=1.3728/
&RAMP ID='fire1_RAMP_Q', T=160.0, F=1.3728/
&RAMP ID='fire1_RAMP_Q', T=165.0, F=1.3728/
&RAMP ID='fire1_RAMP_Q', T=170.0, F=1.3728/
&RAMP ID='fire1_RAMP_Q', T=175.0, F=1.3728/
&RAMP ID='fire1_RAMP_Q', T=180.0, F=1.3728/
&RAMP ID='fire1_RAMP_Q', T=185.0, F=1.3728/
&RAMP ID='fire1_RAMP_Q', T=187.0, F=1.3728/
&RAMP ID='fire1_RAMP_Q', T=930.0, F=1.3728/
&RAMP ID='fire1_RAMP_Q', T=1230.0, F=0.0/
&SURF ID='fire2',
      COLOR='RED',
      HRRPUA=1000.0,
      RAMP_Q='fire2_RAMP_Q',
      TMP_FRONT=300.0/
&RAMP ID='fire2_RAMP_Q', T=0.0, F=0.0/
&RAMP ID='fire2_RAMP_Q', T=5.0, F=0.0/
&RAMP ID='fire2_RAMP_Q', T=10.0, F=0.0/
&RAMP ID='fire2_RAMP_Q', T=15.0, F=0.0/
&RAMP ID='fire2_RAMP_Q', T=20.0, F=0.0/
&RAMP ID='fire2_RAMP_Q', T=25.0, F=0.0/
&RAMP ID='fire2_RAMP_Q', T=30.0, F=0.0/
&RAMP ID='fire2_RAMP_Q', T=35.0, F=0.0/
&RAMP ID='fire2_RAMP_Q', T=40.0, F=0.0/
&RAMP ID='fire2_RAMP_Q', T=45.0, F=0.0/
&RAMP ID='fire2_RAMP_Q', T=50.0, F=0.0/
&RAMP ID='fire2_RAMP_Q', T=55.0, F=0.0/
&RAMP ID='fire2_RAMP_Q', T=60.0, F=0.0/
&RAMP ID='fire2_RAMP_Q', T=65.0, F=0.0/
&RAMP ID='fire2_RAMP_Q', T=70.0, F=0.0/
&RAMP ID='fire2_RAMP_Q', T=75.0, F=0.0/
&RAMP ID='fire2_RAMP_Q', T=80.0, F=0.0/
&RAMP ID='fire2_RAMP_Q', T=85.0, F=0.0/
&RAMP ID='fire2_RAMP_Q', T=90.0, F=0.1663/
&RAMP ID='fire2_RAMP_Q', T=95.0, F=0.342/
&RAMP ID='fire2_RAMP_Q', T=100.0, F=0.5273/
&RAMP ID='fire2_RAMP_Q', T=105.0, F=0.722/
&RAMP ID='fire2_RAMP_Q', T=110.0, F=0.9263/
&RAMP ID='fire2_RAMP_Q', T=115.0, F=1.14/
&RAMP ID='fire2_RAMP_Q', T=120.0, F=1.3633/
&RAMP ID='fire2_RAMP_Q', T=125.0, F=1.3633/
&RAMP ID='fire2_RAMP_Q', T=130.0, F=1.3633/
&RAMP ID='fire2_RAMP_Q', T=135.0, F=1.3633/
&RAMP ID='fire2_RAMP_Q', T=140.0, F=1.3633/
&RAMP ID='fire2_RAMP_Q', T=145.0, F=1.3633/
&RAMP ID='fire2_RAMP_Q', T=150.0, F=1.3633/
&RAMP ID='fire2_RAMP_Q', T=155.0, F=1.3633/
&RAMP ID='fire2_RAMP_Q', T=160.0, F=1.3633/
&RAMP ID='fire2_RAMP_Q', T=165.0, F=1.3633/
&RAMP ID='fire2_RAMP_Q', T=170.0, F=1.3633/
&RAMP ID='fire2_RAMP_Q', T=175.0, F=1.3633/
&RAMP ID='fire2_RAMP_Q', T=180.0, F=1.3633/
&RAMP ID='fire2_RAMP_Q', T=185.0, F=1.3633/
&RAMP ID='fire2_RAMP_Q', T=187.0, F=1.3633/
&RAMP ID='fire2_RAMP_Q', T=930.0, F=1.3633/
&RAMP ID='fire2_RAMP_Q', T=1230.0, F=0.0/
&SURF ID='fire3',
      COLOR='RED',
      HRRPUA=1000.0,
      RAMP_Q='fire3_RAMP_Q',
      TMP_FRONT=300.0/
&RAMP ID='fire3_RAMP_Q', T=0.0, F=0.0/
&RAMP ID='fire3_RAMP_Q', T=5.0, F=0.0/
&RAMP ID='fire3_RAMP_Q', T=10.0, F=0.0/
&RAMP ID='fire3_RAMP_Q', T=15.0, F=0.0/
&RAMP ID='fire3_RAMP_Q', T=20.0, F=0.0/
&RAMP ID='fire3_RAMP_Q', T=25.0, F=0.0/
&RAMP ID='fire3_RAMP_Q', T=30.0, F=0.0/
&RAMP ID='fire3_RAMP_Q', T=35.0, F=0.0/
&RAMP ID='fire3_RAMP_Q', T=40.0, F=0.0/
&RAMP ID='fire3_RAMP_Q', T=45.0, F=0.0/
&RAMP ID='fire3_RAMP_Q', T=50.0, F=0.0/
&RAMP ID='fire3_RAMP_Q', T=55.0, F=0.0/
&RAMP ID='fire3_RAMP_Q', T=60.0, F=0.0/
&RAMP ID='fire3_RAMP_Q', T=65.0, F=0.0/
&RAMP ID='fire3_RAMP_Q', T=70.0, F=0.0/
&RAMP ID='fire3_RAMP_Q', T=75.0, F=0.0/
&RAMP ID='fire3_RAMP_Q', T=80.0, F=0.0/
&RAMP ID='fire3_RAMP_Q', T=85.0, F=0.0/
&RAMP ID='fire3_RAMP_Q', T=90.0, F=0.0/
&RAMP ID='fire3_RAMP_Q', T=95.0, F=0.0/
&RAMP ID='fire3_RAMP_Q', T=100.0, F=0.0/
&RAMP ID='fire3_RAMP_Q', T=105.0, F=0.0/
&RAMP ID='fire3_RAMP_Q', T=110.0, F=0.0/
&RAMP ID='fire3_RAMP_Q', T=115.0, F=0.0/
&RAMP ID='fire3_RAMP_Q', T=120.0, F=0.0/
&RAMP ID='fire3_RAMP_Q', T=125.0, F=0.2328/
&RAMP ID='fire3_RAMP_Q', T=130.0, F=0.475/
&RAMP ID='fire3_RAMP_Q', T=135.0, F=0.7268/
&RAMP ID='fire3_RAMP_Q', T=140.0, F=0.988/
&RAMP ID='fire3_RAMP_Q', T=145.0, F=1.2588/
&RAMP ID='fire3_RAMP_Q', T=150.0, F=1.2588/
&RAMP ID='fire3_RAMP_Q', T=155.0, F=1.2588/
&RAMP ID='fire3_RAMP_Q', T=160.0, F=1.2588/
&RAMP ID='fire3_RAMP_Q', T=165.0, F=1.2588/
&RAMP ID='fire3_RAMP_Q', T=170.0, F=1.2588/
&RAMP ID='fire3_RAMP_Q', T=175.0, F=1.2588/
&RAMP ID='fire3_RAMP_Q', T=180.0, F=1.2588/
&RAMP ID='fire3_RAMP_Q', T=185.0, F=1.2588/
&RAMP ID='fire3_RAMP_Q', T=187.0, F=1.2588/
&RAMP ID='fire3_RAMP_Q', T=930.0, F=1.2588/
&RAMP ID='fire3_RAMP_Q', T=1230.0, F=0.0/
&SURF ID='fire4',
      COLOR='RED',
      HRRPUA=1000.0,
      RAMP_Q='fire4_RAMP_Q',
      TMP_FRONT=300.0/
&RAMP ID='fire4_RAMP_Q', T=0.0, F=0.0/
&RAMP ID='fire4_RAMP_Q', T=5.0, F=0.0/
&RAMP ID='fire4_RAMP_Q', T=10.0, F=0.0/
&RAMP ID='fire4_RAMP_Q', T=15.0, F=0.0/
&RAMP ID='fire4_RAMP_Q', T=20.0, F=0.0/
&RAMP ID='fire4_RAMP_Q', T=25.0, F=0.0/
&RAMP ID='fire4_RAMP_Q', T=30.0, F=0.0/
&RAMP ID='fire4_RAMP_Q', T=35.0, F=0.0/
&RAMP ID='fire4_RAMP_Q', T=40.0, F=0.0/
&RAMP ID='fire4_RAMP_Q', T=45.0, F=0.0/
&RAMP ID='fire4_RAMP_Q', T=50.0, F=0.0/
&RAMP ID='fire4_RAMP_Q', T=55.0, F=0.0/
&RAMP ID='fire4_RAMP_Q', T=60.0, F=0.0/
&RAMP ID='fire4_RAMP_Q', T=65.0, F=0.0/
&RAMP ID='fire4_RAMP_Q', T=70.0, F=0.0/
&RAMP ID='fire4_RAMP_Q', T=75.0, F=0.0/
&RAMP ID='fire4_RAMP_Q', T=80.0, F=0.0/
&RAMP ID='fire4_RAMP_Q', T=85.0, F=0.0/
&RAMP ID='fire4_RAMP_Q', T=90.0, F=0.0/
&RAMP ID='fire4_RAMP_Q', T=95.0, F=0.0/
&RAMP ID='fire4_RAMP_Q', T=100.0, F=0.0/
&RAMP ID='fire4_RAMP_Q', T=105.0, F=0.0/
&RAMP ID='fire4_RAMP_Q', T=110.0, F=0.0/
&RAMP ID='fire4_RAMP_Q', T=115.0, F=0.0/
&RAMP ID='fire4_RAMP_Q', T=120.0, F=0.0/
&RAMP ID='fire4_RAMP_Q', T=125.0, F=0.0/
&RAMP ID='fire4_RAMP_Q', T=130.0, F=0.0/
&RAMP ID='fire4_RAMP_Q', T=135.0, F=0.0/
&RAMP ID='fire4_RAMP_Q', T=140.0, F=0.0/
&RAMP ID='fire4_RAMP_Q', T=145.0, F=0.0/
&RAMP ID='fire4_RAMP_Q', T=150.0, F=0.2803/
&RAMP ID='fire4_RAMP_Q', T=930.0, F=0.2803/
&RAMP ID='fire4_RAMP_Q', T=1230.0, F=0.0/
&SURF ID='ADIABATIC',
      COLOR='GRAY 80',
      ADIABATIC=.TRUE./
&SURF ID='muratura',
      COLOR='GRAY 60',
      BACKING='VOID',
      MATL_ID(1,1)='CONCRETE',
      MATL_MASS_FRACTION(1,1)=1.0,
      THICKNESS(1)=0.1/
&SURF ID='finestra',
      RGB=204,255,255,
      TRANSPARENCY=0.658824,
      BACKING='VOID',
      MATL_ID(1,1:2)='GLASS','STEEL',
      MATL_MASS_FRACTION(1,1:2)=0.9,0.1,
      THICKNESS(1)=0.025/

&OBST ID='Obstruction', XB=326.0,326.2,-61.116448,-21.08661,0.0,6.243637, SURF_ID='parete_metallica'/ 
&OBST ID='Obstruction', XB=326.1,326.3,-21.3,-21.1,0.0,9.2, SURF_ID='parete_metallica'/ 
&OBST ID='Obstruction', XB=326.1,332.1,-21.5,-21.3,0.0,6.2, SURF_ID='parete_metallica'/ 
&OBST ID='Obstruction', XB=326.3,326.5,-21.3,-21.1,0.0,6.5, SURF_ID='parete_metallica'/ 
&OBST ID='Obstruction', XB=326.5,326.9,-21.3,-21.1,0.0,6.6, SURF_ID='parete_metallica'/ 
&OBST ID='Obstruction', XB=326.9,327.2,-21.3,-21.1,0.0,6.7, SURF_ID='parete_metallica'/ 
&OBST ID='Obstruction', XB=327.2,327.6,-21.3,-21.1,0.0,6.8, SURF_ID='parete_metallica'/ 
&OBST ID='Obstruction', XB=327.6,328.0,-21.3,-21.1,0.0,6.9, SURF_ID='parete_metallica'/ 
&OBST ID='Obstruction', XB=328.0,328.3,-21.3,-21.1,0.0,7.0, SURF_ID='parete_metallica'/ 
&OBST ID='Obstruction', XB=328.3,328.7,-21.3,-21.1,0.0,7.1, SURF_ID='parete_metallica'/ 
&OBST ID='Obstruction', XB=328.7,329.1,-21.3,-21.1,0.0,7.2, SURF_ID='parete_metallica'/ 
&OBST ID='Obstruction', XB=329.1,329.4,-21.3,-21.1,0.0,7.3, SURF_ID='parete_metallica'/ 
&OBST ID='Obstruction', XB=329.4,329.8,-21.3,-21.1,0.0,7.4, SURF_ID='parete_metallica'/ 
&OBST ID='Obstruction', XB=329.8,330.2,-21.3,-21.1,0.0,7.5, SURF_ID='parete_metallica'/ 
&OBST ID='Obstruction', XB=330.2,330.5,-21.3,-21.1,0.0,7.6, SURF_ID='parete_metallica'/ 
&OBST ID='Obstruction', XB=330.5,330.9,-21.3,-21.1,0.0,7.7, SURF_ID='parete_metallica'/ 
&OBST ID='Obstruction', XB=330.9,331.3,-21.3,-21.1,0.0,7.8, SURF_ID='parete_metallica'/ 
&OBST ID='Obstruction', XB=331.3,331.6,-21.3,-21.1,0.0,7.9, SURF_ID='parete_metallica'/ 
&OBST ID='Obstruction', XB=331.6,332.0,-21.3,-21.1,0.0,8.0, SURF_ID='parete_metallica'/ 
&OBST ID='Obstruction', XB=332.0,332.1,-21.3,-21.1,0.0,8.1, SURF_ID='parete_metallica'/ 
&OBST ID='Obstruction', XB=332.1,332.5,-21.3,-21.1,-0.1,8.1, SURF_ID='parete_metallica'/ 
&OBST ID='Obstruction', XB=332.1,346.3,-21.5,-21.3,-0.1,6.3, SURF_ID='parete_metallica'/ 
&OBST ID='Obstruction', XB=332.5,333.3,-21.3,-21.1,-0.1,8.3, SURF_ID='parete_metallica'/ 
&OBST ID='Obstruction', XB=333.3,334.1,-21.3,-21.1,-0.1,8.5, SURF_ID='parete_metallica'/ 
&OBST ID='Obstruction', XB=334.1,334.7,-21.3,-21.1,-0.1,8.7, SURF_ID='parete_metallica'/ 
&OBST ID='Obstruction', XB=334.7,335.5,-21.3,-21.1,-0.1,8.9, SURF_ID='parete_metallica'/ 
&OBST ID='Obstruction', XB=335.5,336.3,-21.3,-21.1,-0.1,9.1, SURF_ID='parete_metallica'/ 
&OBST ID='Obstruction', XB=336.3,336.7,-21.3,-21.1,-0.1,6.5, SURF_ID='parete_metallica'/ 
&OBST ID='Obstruction', XB=336.7,337.5,-21.3,-21.1,-0.1,6.7, SURF_ID='parete_metallica'/ 
&OBST ID='Obstruction', XB=337.5,338.1,-21.3,-21.1,-0.1,6.9, SURF_ID='parete_metallica'/ 
&OBST ID='Obstruction', XB=338.1,338.9,-21.3,-21.1,-0.1,7.1, SURF_ID='parete_metallica'/ 
&OBST ID='Obstruction', XB=338.9,339.7,-21.3,-21.1,-0.1,7.3, SURF_ID='parete_metallica'/ 
&OBST ID='Obstruction', XB=339.7,340.3,-21.3,-21.1,-0.1,7.5, SURF_ID='parete_metallica'/ 
&OBST ID='Obstruction', XB=340.3,341.1,-21.3,-21.1,-0.1,7.7, SURF_ID='parete_metallica'/ 
&OBST ID='Obstruction', XB=341.1,341.9,-21.3,-21.1,-0.1,7.9, SURF_ID='parete_metallica'/ 
&OBST ID='Obstruction', XB=341.9,342.5,-21.3,-21.1,-0.1,8.1, SURF_ID='parete_metallica'/ 
&OBST ID='Obstruction', XB=342.5,343.3,-21.3,-21.1,-0.1,8.3, SURF_ID='parete_metallica'/ 
&OBST ID='Obstruction', XB=343.3,344.1,-21.3,-21.1,-0.1,8.5, SURF_ID='parete_metallica'/ 
&OBST ID='Obstruction', XB=344.1,344.7,-21.3,-21.1,-0.1,8.7, SURF_ID='parete_metallica'/ 
&OBST ID='Obstruction', XB=344.7,345.5,-21.3,-21.1,-0.1,8.9, SURF_ID='parete_metallica'/ 
&OBST ID='Obstruction', XB=345.5,346.3,-21.3,-21.1,-0.1,9.1, SURF_ID='parete_metallica'/ 
&OBST ID='Obstruction', XB=336.3,336.3,-21.3,-21.1,9.1,9.3, SURF_ID='parete_metallica'/ 
&OBST ID='Obstruction', XB=346.3,346.3,-21.3,-21.1,9.1,9.3, SURF_ID='parete_metallica'/ 
&OBST ID='Obstruction', XB=326.1,326.3,-61.3,-61.1,-0.1,9.1, SURF_ID='parete_metallica'/ 
&OBST ID='Obstruction', XB=326.1,346.3,-61.5,-61.3,-0.1,6.3, SURF_ID='parete_metallica'/ 
&OBST ID='Obstruction', XB=326.3,326.7,-61.3,-61.1,-0.1,6.5, SURF_ID='parete_metallica'/ 
&OBST ID='Obstruction', XB=326.7,327.5,-61.3,-61.1,-0.1,6.7, SURF_ID='parete_metallica'/ 
&OBST ID='Obstruction', XB=327.5,328.1,-61.3,-61.1,-0.1,6.9, SURF_ID='parete_metallica'/ 
&OBST ID='Obstruction', XB=328.1,328.9,-61.3,-61.1,-0.1,7.1, SURF_ID='parete_metallica'/ 
&OBST ID='Obstruction', XB=328.9,329.7,-61.3,-61.1,-0.1,7.3, SURF_ID='parete_metallica'/ 
&OBST ID='Obstruction', XB=329.7,330.3,-61.3,-61.1,-0.1,7.5, SURF_ID='parete_metallica'/ 
&OBST ID='Obstruction', XB=330.3,331.1,-61.3,-61.1,-0.1,7.7, SURF_ID='parete_metallica'/ 
&OBST ID='Obstruction', XB=331.1,331.9,-61.3,-61.1,-0.1,7.9, SURF_ID='parete_metallica'/ 
&OBST ID='Obstruction', XB=331.9,332.5,-61.3,-61.1,-0.1,8.1, SURF_ID='parete_metallica'/ 
&OBST ID='Obstruction', XB=332.5,333.3,-61.3,-61.1,-0.1,8.3, SURF_ID='parete_metallica'/ 
&OBST ID='Obstruction', XB=333.3,334.1,-61.3,-61.1,-0.1,8.5, SURF_ID='parete_metallica'/ 
&OBST ID='Obstruction', XB=334.1,334.7,-61.3,-61.1,-0.1,8.7, SURF_ID='parete_metallica'/ 
&OBST ID='Obstruction', XB=334.7,335.5,-61.3,-61.1,-0.1,8.9, SURF_ID='parete_metallica'/ 
&OBST ID='Obstruction', XB=335.5,336.3,-61.3,-61.1,-0.1,9.1, SURF_ID='parete_metallica'/ 
&OBST ID='Obstruction', XB=336.3,336.7,-61.3,-61.1,-0.1,6.5, SURF_ID='parete_metallica'/ 
&OBST ID='Obstruction', XB=336.7,337.5,-61.3,-61.1,-0.1,6.7, SURF_ID='parete_metallica'/ 
&OBST ID='Obstruction', XB=337.5,338.1,-61.3,-61.1,-0.1,6.9, SURF_ID='parete_metallica'/ 
&OBST ID='Obstruction', XB=338.1,338.9,-61.3,-61.1,-0.1,7.1, SURF_ID='parete_metallica'/ 
&OBST ID='Obstruction', XB=338.9,339.7,-61.3,-61.1,-0.1,7.3, SURF_ID='parete_metallica'/ 
&OBST ID='Obstruction', XB=339.7,340.3,-61.3,-61.1,-0.1,7.5, SURF_ID='parete_metallica'/ 
&OBST ID='Obstruction', XB=340.3,341.1,-61.3,-61.1,-0.1,7.7, SURF_ID='parete_metallica'/ 
&OBST ID='Obstruction', XB=341.1,341.9,-61.3,-61.1,-0.1,7.9, SURF_ID='parete_metallica'/ 
&OBST ID='Obstruction', XB=341.9,342.5,-61.3,-61.1,-0.1,8.1, SURF_ID='parete_metallica'/ 
&OBST ID='Obstruction', XB=342.5,343.3,-61.3,-61.1,-0.1,8.3, SURF_ID='parete_metallica'/ 
&OBST ID='Obstruction', XB=343.3,344.1,-61.3,-61.1,-0.1,8.5, SURF_ID='parete_metallica'/ 
&OBST ID='Obstruction', XB=344.1,344.7,-61.3,-61.1,-0.1,8.7, SURF_ID='parete_metallica'/ 
&OBST ID='Obstruction', XB=344.7,345.5,-61.3,-61.1,-0.1,8.9, SURF_ID='parete_metallica'/ 
&OBST ID='Obstruction', XB=345.5,346.3,-61.3,-61.1,-0.1,9.1, SURF_ID='parete_metallica'/ 
&OBST ID='Obstruction', XB=326.3,326.3,-61.3,-61.1,9.1,9.3, SURF_ID='parete_metallica'/ 
&OBST ID='Obstruction', XB=336.3,336.3,-61.3,-61.1,9.1,9.3, SURF_ID='parete_metallica'/ 
&OBST ID='Obstruction', XB=346.3,346.3,-61.3,-61.1,9.1,9.3, SURF_ID='parete_metallica'/ 
&OBST ID='Obstruction', XB=346.3,379.9,-61.5,-61.1,-0.1,6.3, SURF_ID='parete_metallica'/ 
&OBST ID='Obstruction', XB=346.7,347.9,-61.1,-61.1,6.3,6.7, SURF_ID='parete_metallica'/ 
&OBST ID='Obstruction', XB=347.9,349.5,-61.1,-61.1,6.3,7.1, SURF_ID='parete_metallica'/ 
&OBST ID='Obstruction', XB=349.5,350.7,-61.1,-61.1,6.3,7.5, SURF_ID='parete_metallica'/ 
&OBST ID='Obstruction', XB=350.7,352.3,-61.1,-61.1,6.3,7.9, SURF_ID='parete_metallica'/ 
&OBST ID='Obstruction', XB=352.3,353.9,-61.1,-61.1,6.3,8.3, SURF_ID='parete_metallica'/ 
&OBST ID='Obstruction', XB=353.9,355.1,-61.1,-61.1,6.3,8.7, SURF_ID='parete_metallica'/ 
&OBST ID='Obstruction', XB=355.1,356.3,-61.1,-61.1,6.3,9.1, SURF_ID='parete_metallica'/ 
&OBST ID='Obstruction', XB=356.3,357.9,-61.1,-61.1,6.3,6.7, SURF_ID='parete_metallica'/ 
&OBST ID='Obstruction', XB=357.9,359.5,-61.1,-61.1,6.3,7.1, SURF_ID='parete_metallica'/ 
&OBST ID='Obstruction', XB=359.5,360.7,-61.1,-61.1,6.3,7.5, SURF_ID='parete_metallica'/ 
&OBST ID='Obstruction', XB=360.7,362.3,-61.1,-61.1,6.3,7.9, SURF_ID='parete_metallica'/ 
&OBST ID='Obstruction', XB=362.3,363.9,-61.1,-61.1,6.3,8.3, SURF_ID='parete_metallica'/ 
&OBST ID='Obstruction', XB=363.9,365.1,-61.1,-61.1,6.3,8.7, SURF_ID='parete_metallica'/ 
&OBST ID='Obstruction', XB=365.1,366.3,-61.1,-61.1,6.3,9.1, SURF_ID='parete_metallica'/ 
&OBST ID='Obstruction', XB=366.3,367.9,-61.1,-61.1,6.3,6.7, SURF_ID='parete_metallica'/ 
&OBST ID='Obstruction', XB=367.9,369.5,-61.1,-61.1,6.3,7.1, SURF_ID='parete_metallica'/ 
&OBST ID='Obstruction', XB=369.5,370.7,-61.1,-61.1,6.3,7.5, SURF_ID='parete_metallica'/ 
&OBST ID='Obstruction', XB=370.7,372.3,-61.1,-61.1,6.3,7.9, SURF_ID='parete_metallica'/ 
&OBST ID='Obstruction', XB=372.3,373.9,-61.1,-61.1,6.3,8.3, SURF_ID='parete_metallica'/ 
&OBST ID='Obstruction', XB=373.9,375.1,-61.1,-61.1,6.3,8.7, SURF_ID='parete_metallica'/ 
&OBST ID='Obstruction', XB=375.1,376.3,-61.1,-61.1,6.3,9.1, SURF_ID='parete_metallica'/ 
&OBST ID='Obstruction', XB=376.3,377.9,-61.1,-61.1,6.3,6.7, SURF_ID='parete_metallica'/ 
&OBST ID='Obstruction', XB=377.9,379.5,-61.1,-61.1,6.3,7.1, SURF_ID='parete_metallica'/ 
&OBST ID='Obstruction', XB=379.5,379.9,-61.1,-61.1,6.3,7.5, SURF_ID='parete_metallica'/ 
&OBST ID='Obstruction', XB=346.3,379.9,-21.5,-21.1,-0.1,6.3, SURF_ID='parete_metallica'/ 
&OBST ID='Obstruction', XB=346.7,347.9,-21.1,-21.1,6.3,6.7, SURF_ID='parete_metallica'/ 
&OBST ID='Obstruction', XB=347.9,349.5,-21.1,-21.1,6.3,7.1, SURF_ID='parete_metallica'/ 
&OBST ID='Obstruction', XB=349.5,350.7,-21.1,-21.1,6.3,7.5, SURF_ID='parete_metallica'/ 
&OBST ID='Obstruction', XB=350.7,352.3,-21.1,-21.1,6.3,7.9, SURF_ID='parete_metallica'/ 
&OBST ID='Obstruction', XB=352.3,353.9,-21.1,-21.1,6.3,8.3, SURF_ID='parete_metallica'/ 
&OBST ID='Obstruction', XB=353.9,355.1,-21.1,-21.1,6.3,8.7, SURF_ID='parete_metallica'/ 
&OBST ID='Obstruction', XB=355.1,356.3,-21.1,-21.1,6.3,9.1, SURF_ID='parete_metallica'/ 
&OBST ID='Obstruction', XB=356.3,357.9,-21.1,-21.1,6.3,6.7, SURF_ID='parete_metallica'/ 
&OBST ID='Obstruction', XB=357.9,359.5,-21.1,-21.1,6.3,7.1, SURF_ID='parete_metallica'/ 
&OBST ID='Obstruction', XB=359.5,360.7,-21.1,-21.1,6.3,7.5, SURF_ID='parete_metallica'/ 
&OBST ID='Obstruction', XB=360.7,362.3,-21.1,-21.1,6.3,7.9, SURF_ID='parete_metallica'/ 
&OBST ID='Obstruction', XB=362.3,363.9,-21.1,-21.1,6.3,8.3, SURF_ID='parete_metallica'/ 
&OBST ID='Obstruction', XB=363.9,365.1,-21.1,-21.1,6.3,8.7, SURF_ID='parete_metallica'/ 
&OBST ID='Obstruction', XB=365.1,366.3,-21.1,-21.1,6.3,9.1, SURF_ID='parete_metallica'/ 
&OBST ID='Obstruction', XB=366.3,367.9,-21.1,-21.1,6.3,6.7, SURF_ID='parete_metallica'/ 
&OBST ID='Obstruction', XB=367.9,369.5,-21.1,-21.1,6.3,7.1, SURF_ID='parete_metallica'/ 
&OBST ID='Obstruction', XB=369.5,370.7,-21.1,-21.1,6.3,7.5, SURF_ID='parete_metallica'/ 
&OBST ID='Obstruction', XB=370.7,372.3,-21.1,-21.1,6.3,7.9, SURF_ID='parete_metallica'/ 
&OBST ID='Obstruction', XB=372.3,373.9,-21.1,-21.1,6.3,8.3, SURF_ID='parete_metallica'/ 
&OBST ID='Obstruction', XB=373.9,375.1,-21.1,-21.1,6.3,8.7, SURF_ID='parete_metallica'/ 
&OBST ID='Obstruction', XB=375.1,376.3,-21.1,-21.1,6.3,9.1, SURF_ID='parete_metallica'/ 
&OBST ID='Obstruction', XB=376.3,377.9,-21.1,-21.1,6.3,6.7, SURF_ID='parete_metallica'/ 
&OBST ID='Obstruction', XB=377.9,379.5,-21.1,-21.1,6.3,7.1, SURF_ID='parete_metallica'/ 
&OBST ID='Obstruction', XB=379.5,379.9,-21.1,-21.1,6.3,7.5, SURF_ID='parete_metallica'/ 
&OBST ID='Obstruction', XB=379.9,397.9,-61.5,-61.1,-0.1,6.3, SURF_ID='parete_metallica'/ 
&OBST ID='Obstruction', XB=379.9,406.3,-21.5,-21.1,-0.1,6.3, SURF_ID='parete_metallica'/ 
&OBST ID='Obstruction', XB=385.1,395.5,-52.7,-52.3,-0.1,6.3, SURF_ID='parete_metallica'/ 
&OBST ID='Obstruction', XB=385.1,395.5,-61.1,-52.7,5.9,6.3, SURF_ID='parete_metallica'/ 
&OBST ID='Obstruction', XB=397.9,399.1,-61.5,-61.1,2.3,6.3, SURF_ID='parete_metallica'/ 
&OBST ID='Obstruction', XB=399.1,406.3,-61.5,-61.1,-0.1,6.3, SURF_ID='parete_metallica'/ 
&OBST ID='Obstruction', XB=401.5,401.9,-61.1,-52.3,-0.1,6.3, SURF_ID='parete_metallica'/ 
&OBST ID='Obstruction', XB=401.5,406.3,-52.3,-51.9,-0.1,6.3, SURF_ID='parete_metallica'/ 
&OBST ID='Obstruction', XB=401.9,405.9,-61.1,-52.3,5.9,6.3, SURF_ID='parete_metallica'/ 
&OBST ID='Obstruction', XB=405.9,406.3,-61.1,-52.3,-0.1,6.3, SURF_ID='parete_metallica'/ 
&OBST ID='Obstruction', XB=405.9,406.3,-51.9,-21.5,-0.1,6.3, SURF_ID='parete_metallica'/ 
&OBST ID='Obstruction', XB=406.3,406.7,-52.3,-51.9,-0.1,5.9, SURF_ID='parete_metallica'/ 
&OBST ID='Obstruction', XB=379.9,380.7,-61.1,-61.1,6.3,7.5, SURF_ID='parete_metallica'/ 
&OBST ID='Obstruction', XB=379.9,380.7,-21.1,-21.1,6.3,7.5, SURF_ID='parete_metallica'/ 
&OBST ID='Obstruction', XB=380.7,382.3,-61.1,-61.1,6.3,7.9, SURF_ID='parete_metallica'/ 
&OBST ID='Obstruction', XB=380.7,382.3,-21.1,-21.1,6.3,7.9, SURF_ID='parete_metallica'/ 
&OBST ID='Obstruction', XB=382.3,383.5,-61.1,-61.1,6.3,8.3, SURF_ID='parete_metallica'/ 
&OBST ID='Obstruction', XB=382.3,383.5,-21.1,-21.1,6.3,8.3, SURF_ID='parete_metallica'/ 
&OBST ID='Obstruction', XB=383.5,385.1,-61.1,-61.1,6.3,8.7, SURF_ID='parete_metallica'/ 
&OBST ID='Obstruction', XB=383.5,385.1,-21.1,-21.1,6.3,8.7, SURF_ID='parete_metallica'/ 
&OBST ID='Obstruction', XB=385.1,386.3,-61.1,-61.1,6.3,9.1, SURF_ID='parete_metallica'/ 
&OBST ID='Obstruction', XB=385.1,386.3,-21.1,-21.1,6.3,9.1, SURF_ID='parete_metallica'/ 
&OBST ID='Obstruction', XB=386.3,387.9,-61.1,-61.1,6.3,6.7, SURF_ID='parete_metallica'/ 
&OBST ID='Obstruction', XB=386.3,387.9,-21.1,-21.1,6.3,6.7, SURF_ID='parete_metallica'/ 
&OBST ID='Obstruction', XB=387.9,389.5,-61.1,-61.1,6.3,7.1, SURF_ID='parete_metallica'/ 
&OBST ID='Obstruction', XB=387.9,389.5,-21.1,-21.1,6.3,7.1, SURF_ID='parete_metallica'/ 
&OBST ID='Obstruction', XB=389.5,390.7,-61.1,-61.1,6.3,7.5, SURF_ID='parete_metallica'/ 
&OBST ID='Obstruction', XB=389.5,390.7,-21.1,-21.1,6.3,7.5, SURF_ID='parete_metallica'/ 
&OBST ID='Obstruction', XB=390.7,392.3,-61.1,-61.1,6.3,7.9, SURF_ID='parete_metallica'/ 
&OBST ID='Obstruction', XB=390.7,392.3,-21.1,-21.1,6.3,7.9, SURF_ID='parete_metallica'/ 
&OBST ID='Obstruction', XB=392.3,393.5,-61.1,-61.1,6.3,8.3, SURF_ID='parete_metallica'/ 
&OBST ID='Obstruction', XB=392.3,393.5,-21.1,-21.1,6.3,8.3, SURF_ID='parete_metallica'/ 
&OBST ID='Obstruction', XB=393.5,395.1,-61.1,-61.1,6.3,8.7, SURF_ID='parete_metallica'/ 
&OBST ID='Obstruction', XB=393.5,395.1,-21.1,-21.1,6.3,8.7, SURF_ID='parete_metallica'/ 
&OBST ID='Obstruction', XB=395.1,396.3,-61.1,-61.1,6.3,9.1, SURF_ID='parete_metallica'/ 
&OBST ID='Obstruction', XB=395.1,396.3,-21.1,-21.1,6.3,9.1, SURF_ID='parete_metallica'/ 
&OBST ID='Obstruction', XB=396.3,397.9,-61.1,-61.1,6.3,6.7, SURF_ID='parete_metallica'/ 
&OBST ID='Obstruction', XB=396.3,397.9,-21.1,-21.1,6.3,6.7, SURF_ID='parete_metallica'/ 
&OBST ID='Obstruction', XB=397.9,399.1,-61.5,-61.5,-0.1,2.3, SURF_ID='parete_metallica'/ 
&OBST ID='Obstruction', XB=397.9,399.1,-61.1,-61.1,6.3,7.1, SURF_ID='parete_metallica'/ 
&OBST ID='Obstruction', XB=397.9,399.1,-21.1,-21.1,6.3,7.1, SURF_ID='parete_metallica'/ 
&OBST ID='Obstruction', XB=399.1,400.7,-61.1,-61.1,6.3,7.5, SURF_ID='parete_metallica'/ 
&OBST ID='Obstruction', XB=399.1,400.7,-21.1,-21.1,6.3,7.5, SURF_ID='parete_metallica'/ 
&OBST ID='Obstruction', XB=400.7,402.3,-61.1,-61.1,6.3,7.9, SURF_ID='parete_metallica'/ 
&OBST ID='Obstruction', XB=400.7,402.3,-21.1,-21.1,6.3,7.9, SURF_ID='parete_metallica'/ 
&OBST ID='Obstruction', XB=402.3,403.5,-61.1,-61.1,6.3,8.3, SURF_ID='parete_metallica'/ 
&OBST ID='Obstruction', XB=402.3,403.5,-21.1,-21.1,6.3,8.3, SURF_ID='parete_metallica'/ 
&OBST ID='Obstruction', XB=403.5,405.1,-61.1,-61.1,6.3,8.7, SURF_ID='parete_metallica'/ 
&OBST ID='Obstruction', XB=403.5,405.1,-21.1,-21.1,6.3,8.7, SURF_ID='parete_metallica'/ 
&OBST ID='Obstruction', XB=405.1,406.3,-61.1,-61.1,6.3,9.1, SURF_ID='parete_metallica'/ 
&OBST ID='Obstruction', XB=405.1,406.3,-21.1,-21.1,6.3,9.1, SURF_ID='parete_metallica'/ 
&OBST ID='Obstruction', XB=385.1,385.1,-49.9,-21.5,-0.1,3.1, SURF_ID='parete_metallica'/ 
&OBST ID='Obstruction', XB=385.1,385.1,-61.1,-52.7,-0.1,5.9, SURF_ID='parete_metallica'/ 
&OBST ID='Obstruction', XB=395.5,395.5,-61.1,-52.7,-0.1,5.9, SURF_ID='parete_metallica'/ 
&OBST ID='Obstruction', XB=326.7,327.7,-23.9,-22.9,0.0,2.0, SURF_ID='ADIABATIC'/ 
&OBST ID='Obstruction', XB=327.8,328.8,-23.9,-22.9,0.0,2.0, SURF_ID='ADIABATIC'/ 
&OBST ID='Obstruction', XB=327.8,328.8,-25.0,-24.0,0.0,2.0, SURF_ID='ADIABATIC'/ 
&OBST ID='Obstruction', XB=328.9,329.9,-23.9,-22.9,0.0,2.0, SURF_ID='ADIABATIC'/ 